Circuit: * C:\Users\radovic\Desktop\Files\Fakultet\1. SEMESTAR\Osnove biomedicinskog inzenjerstva\Vjezbe\5\Draft1.asc

Direct Newton iteration failed to find .op point.  (Use ".option noopiter" to skip.)
Starting Gmin stepping
Gmin = 10
Gmin = 1.07374
Gmin = 0.115292
Gmin = 0.0123794
Gmin = 0.00132923
Gmin = 0.000142725
Gmin = 1.5325e-05
Gmin = 1.6455e-06
Gmin = 1.76685e-07
Gmin = 1.89714e-08
Gmin = 2.03704e-09
Gmin = 2.18725e-10
Gmin = 2.34854e-11
Gmin = 2.52173e-12
Gmin = 2.70769e-13
Gmin = 0
Gmin stepping succeeded in finding the operating point.


Date: Fri Nov 24 11:57:59 2023
Total elapsed time: 0.192 seconds.

tnom = 27
temp = 27
method = modified trap
totiter = 2630
traniter = 2234
tranpoints = 1118
accept = 1068
rejected = 50
matrix size = 9
fillins = 1
solver = Normal
Avg thread counts: 2.8/4.6/4.6/2.8
Matrix Compiler1:      22 opcodes  0.3/[0.2]/0.2
Matrix Compiler2: off  [0.3]/0.6/0.6

