Circuit: * C:\Users\radovic\Desktop\Files\Fakultet\1. SEMESTAR\Osnove biomedicinskog inzenjerstva\Vjezbe\5\Draft2.asc

WARNING: Specified period is not longer than the sum of Trise, Tfall, and Ton for v1.  Increasing period to 0.11
Direct Newton iteration for .op point succeeded.

Date: Fri Nov 24 10:54:28 2023
Total elapsed time: 0.057 seconds.

tnom = 27
temp = 27
method = trap
totiter = 3
traniter = 0
tranpoints = 0
accept = 0
rejected = 0
matrix size = 10
fillins = 1
solver = Normal
Avg thread counts: 12.0/0.0/12.0/8.1
Matrix Compiler1:      25 opcodes
Matrix Compiler2: 802 bytes object code size
