Circuit: * C:\Users\radovic\Desktop\Files\Fakultet\1. SEMESTAR\Osnove biomedicinskog inzenjerstva\Vjezbe\4\Draft1.asc

Direct Newton iteration for .op point succeeded.

Date: Fri Nov 10 11:35:53 2023
Total elapsed time: 0.079 seconds.

tnom = 27
temp = 27
method = modified trap
totiter = 2143
traniter = 2096
tranpoints = 1049
accept = 1049
rejected = 0
matrix size = 10
fillins = 1
solver = Normal
Avg thread counts: 2.9/4.8/4.8/2.9
Matrix Compiler1: 454 bytes object code size  0.5/0.3/[0.1]
Matrix Compiler2: 850 bytes object code size  0.4/0.2/[0.2]

